# ----------------------------------------------------------------
#            Orca input file - etane                 
# ----------------------------------------------------------------
! B3LYP
!  6-31G CHELPG 
* xyz   0   1  
C  -3.183100 2.154500 -0.151900 
H  -2.072800 2.159200 -0.156700 
C  -3.689500 1.156700 0.875500 
H  -3.550100 1.874200 -1.161700 
H  -3.550100 3.172100 0.098900 
H  -3.322600 0.139100 0.624800 
H  -4.799900 1.152000 0.880400 
H  -3.322600 1.437100 1.885300 
*                                                                 
