# ----------------------------------------------------------------
#            Orca input file - etanol                 
# ----------------------------------------------------------------
! B3LYP
!  6-31G CHELPG 
* xyz   0   1  
C  -3.367800 2.090300 -0.105800 
C  -1.846200 2.164200 -0.127400 
O  -3.801700 1.203200 0.889000 
H  -3.759500 1.779500 -1.100600 
H  -3.779700 3.097700 0.114200 
H  -3.623300 0.287300 0.550300 
H  -1.419400 1.166300 -0.362600 
H  -1.468200 2.498400 0.861900 
H  -1.517200 2.887400 -0.903100 
*                                                                 
