# ----------------------------------------------------------------
#            Orca input file - metane                 
# ----------------------------------------------------------------
! B3LYP
!  6-31G CHELPG 
* xyz   0   1  
C  -3.258000 2.007000 0.000000 
H  -2.188000 2.007000 0.000000 
H  -3.614700 1.304200 0.723700 
H  -3.614700 1.731700 -0.970500 
H  -3.614700 2.985200 0.246800 
*                                                                 
