# ----------------------------------------------------------------
#            Orca input file - metylamine                 
# ----------------------------------------------------------------
! B3LYP
!  6-31G CHELPG 
* xyz   0   1  
C  -3.191900 2.116100 -0.128200 
H  -2.080400 2.126000 -0.116900 
N  -3.679300 1.232000 0.839200 
H  -3.575100 1.837500 -1.133700 
H  -3.549700 3.139400 0.107600 
H  -3.355300 0.287600 0.630800 
H  -4.699100 1.250500 0.833700 
*                                                                 
