# ================================================================
# Orca input file made in Gabedit                                 
# ================================================================
! HF
!  3-21G CHELPG 
* xyz 0   1                                                       
C  -8.552000 1.288900 0.012900 
C  -7.260500 2.099900 0.066500 
H  -8.627300 0.745300 -0.952900 
H  -9.423600 1.970400 0.106400 
H  -8.582300 0.556500 0.847600 
C  -6.032200 1.192200 -0.061800 
H  -7.221500 2.647800 1.033300 
H  -7.266200 2.840000 -0.763300 
C  -4.740500 2.002400 -0.000900 
H  -4.708300 2.741400 -0.829600 
H  -3.868900 1.321300 -0.097600 
H  -4.666900 2.538300 0.969500 
H  -6.069600 0.647900 -1.030700 
H  -6.028100 0.449000 0.765200 
*                                                                 
